/*--------------------------------*- C++ -*----------------------------------*\
| =========                 |                                                 |
| \\      /  F ield         | OpenFOAM: The Open Source CFD Toolbox           |
|  \\    /   O peration     | Version:  v2012                                 |
|   \\  /    A nd           | Web:      www.openfoam.com                      |
|    \\/     M anipulation  |                                                 |
\*---------------------------------------------------------------------------*/
FoamFile
{
    version     2.0;
    format      ascii;
    class       dictionary;
    object      blockMeshDict;
}

// * * * * * * * * * * * * * * * * * * * * * * * * * * * * * * * * * * * * * //

scale 1;

vertices
(
    (-1.9  0 -6)
    (2.1  0 -6)
    (2.1  2 -6)
    (-1.9  2 -6)
    (-1.9  0  3)
    (2.1  0  3)
    (2.1  2  3)
    (-1.9  2  3)
);

blocks
(
    hex (0 1 2 3 4 5 6 7) (60 30 150) simpleGrading (1 1 1)
);

edges
(
);

boundary
(
    topY
    {
        type wall;
        faces
        (
            (3 7 6 2) //topY
        );
    }
    bottomY
    {
        type wall;
        faces
        (
            (1 5 4 0) // bottomY
        );
    }
    topX
    {
	type wall;
	faces
	(
	     (2 6 5 1) // topX
	);
    }	

    bottomX
    {
	type wall;
	faces
	(
	     (0 4 7 3) // bottomX
	);
    }

    topZ
    {
        type patch;
        faces
        (
            (4 5 6 7) // top Z
        );
    }

    bottomZ
    {
	type patch;
	faces
	(
	    (0 3 2 1) // bottom Z
	);

    }
);

mergePatchPairs
(
);

// ************************************************************************* //
